Circuit: * C:\Users\ncard\OneDrive - University of Ottawa\University Archive\Year 5\Fall Term\Electronics 3\Project\Draft1.asc

Direct Newton iteration for .op point succeeded.

Date: Wed Nov 09 12:03:19 2022
Total elapsed time: 0.125 seconds.

tnom = 27
temp = 27
method = modified trap
totiter = 2088
traniter = 2082
tranpoints = 1042
accept = 1042
rejected = 0
matrix size = 31
fillins = 1
solver = Normal
Matrix Compiler1:      80 opcodes  0.3/[0.2]/0.3
Matrix Compiler2: off  [0.2]/0.2/0.3

