Circuit: * C:\Users\ncard\OneDrive - University of Ottawa\University Archive\Year 5\Fall Term\Electronics 3\Project\Draft4.asc


Date: Sat Nov 12 00:16:58 2022
Total elapsed time: 0.070 seconds.

tnom = 27
temp = 27
method = trap
totiter = 0
traniter = 0
tranpoints = 0
accept = 0
rejected = 0
matrix size = 3
fillins = 0
solver = Normal

