Circuit: * C:\Users\ncard\OneDrive - University of Ottawa\University Archive\Year 5\Fall Term\Electronics 3\Project\LT8570.asc

Instance "m:u2:_u2:6": Length shorter than recommended for a level 2 MOSFET.
Instance "m:u2:_u2:5": Length shorter than recommended for a level 2 MOSFET.
Instance "m:u2:_u1:6": Length shorter than recommended for a level 2 MOSFET.
Instance "m:u2:_u1:5": Length shorter than recommended for a level 2 MOSFET.
Direct Newton iteration failed to find .op point.  (Use ".option noopiter" to skip.)
Starting Gmin stepping
Gmin = 10
Gmin = 1.07374
Gmin = 0.115292
Gmin = 0.0123794
Gmin = 0.00132923
vernier = 0.5
vernier = 0.25
vernier = 0.125
vernier = 0.0625
Gmin = 0.00100083
vernier = 0.03125
vernier = 0.015625
vernier = 0.0078125
vernier = 0.00390625
vernier = 0.00195313
Gmin = 0.00100083
vernier = 0.000976563
vernier = 0.000488281
Gmin = 0
Gmin stepping failed

Starting source stepping with srcstepmethod=0
Source Step = 3.0303%
Source Step = 24.4318%
vernier = 0.015625
Source Step = 24.2661%
Source Step = 24.2957%
Source Step = 24.3253%
Source Step = 24.3549%
Source Step = 24.3845%
vernier = 0.00146484
Source Step = 24.4229%
Source Step = 24.4673%
Source Step = 24.5117%
Source Step = 24.5561%
Source Step = 24.6005%
vernier = 0.00219727
Source Step = 24.656%
Source Step = 24.7226%
Source Step = 24.7892%
Source Step = 24.8557%
Source Step = 24.9223%
vernier = 0.0032959
Source Step = 25.0022%
Source Step = 25.1021%
Source Step = 25.202%
Source Step = 25.3018%
Source Step = 25.4017%
vernier = 0.00494385
Source Step = 25.5166%
Source Step = 25.6664%
Source Step = 25.8162%
Source Step = 25.966%
Source Step = 26.1158%
vernier = 0.00741577
Source Step = 26.2806%
Source Step = 26.5053%
Source Step = 26.7301%
Source Step = 26.9548%
Source Step = 27.1795%
vernier = 0.0111237
Source Step = 27.4155%
Source Step = 27.7525%
Source Step = 28.0896%
Source Step = 28.4267%
Source Step = 28.7638%
Source Step = 29.1009%
vernier = 0.0166855
Source Step = 29.6065%
Source Step = 30.1121%
Source Step = 30.6177%
Source Step = 31.1234%
Source Step = 31.629%
vernier = 0.0250282
Source Step = 32.3621%
Source Step = 33.1206%
Source Step = 33.879%
Source Step = 34.6374%
Source Step = 35.3958%
vernier = 0.0375423
Source Step = 36.4577%
Source Step = 37.5953%
Source Step = 38.7329%
Source Step = 39.8706%
Source Step = 41.0082%
vernier = 0.0563135
Source Step = 42.5441%
Source Step = 44.2505%
Source Step = 45.957%
Source Step = 47.6635%
Source Step = 49.3699%
vernier = 0.0844703
Source Step = 51.5884%
Source Step = 54.1481%
Source Step = 56.7078%
Source Step = 59.2675%
Source Step = 61.8272%
vernier = 0.126705
Source Step = 65.0268%
Source Step = 68.8664%
Source Step = 72.7059%
Source Step = 76.5455%
Source Step = 80.385%
vernier = 0.190058
Source Step = 84.9925%
Source Step = 87.2242%
Source Step = 87.3322%
Source Step = 87.4222%
Source Step = 87.5122%
Source Step = 87.6022%
Starting source stepping with srcstepmethod=1
Source Step = 3.0303%
Source Step = 33.3333%
Source Step = 63.6364%
Source Step = 66.5246%
vernier = 0.00390625
Source Step = 66.5956%
Source Step = 66.714%
Source Step = 66.7495%
Source stepping failed

Pseudo Transient failed in finding the operating point at 11.4872 ns.
Trouble finding operating point....skipping operating point for Transient analysis.
Ignoring empty pin current: Ix(_u1:100)
Ignoring empty pin current: Ix(_u1:101)
Ignoring empty pin current: Ix(_u1:102)
Ignoring empty pin current: Ix(_u1:103)
Ignoring empty pin current: Ix(_u1:104)
Ignoring empty pin current: Ix(_u2:100)
Ignoring empty pin current: Ix(_u2:101)
Ignoring empty pin current: Ix(_u2:102)
Ignoring empty pin current: Ix(_u2:103)
Ignoring empty pin current: Ix(_u2:104)
Ignoring empty pin current: Ix(u1:8)
Ignoring empty pin current: Ix(u2:sdn)

Date: Sat Oct 29 13:29:42 2022
Total elapsed time: 17.630 seconds.

tnom = 27
temp = 27
method = modified trap
totiter = 1055508
traniter = 0
tranpoints = 1
accept = 1
rejected = 33720
matrix size = 140
fillins = 291
solver = Normal
Thread vector: 12.6/7.0[3] 6.5/4.4[3] 3.9/2.0[3] 0.8/1.1[1]  2592/500
Matrix Compiler1: 30.54 KB object code size  7.3/4.4/[2.0]
Matrix Compiler2: 16.35 KB object code size  1.9/2.9/[1.2]

