Circuit: * C:\Users\ncard\OneDrive - University of Ottawa\University Archive\Year 5\Fall Term\Electronics 3\Project\LT8570 with cc2.asc

Direct Newton iteration for .op point succeeded.
Ignoring empty pin current: Ix(u1:8)
Ignoring empty pin current: Ix(u1:8)
.step r=10000
Heightened Def Con from 0.0954448 to 0.0954448
.step r=50000

Date: Sun Nov 13 19:48:11 2022
Total elapsed time: 88.743 seconds.

tnom = 27
temp = 27
method = modified trap
totiter = 1465437
traniter = 1465397
tranpoints = 414305
accept = 316023
rejected = 98285
matrix size = 94
fillins = 4
solver = Normal
Thread vector: 9.5/6.7[7] 7.5/4.8[7] 2.2/1.6[5] 0.3/1.6[1]  2592/500
Matrix Compiler1: 4.29 KB object code size  1.7/1.3/[1.2]
Matrix Compiler2: 6.46 KB object code size  1.2/1.9/[1.1]

