Circuit: * C:\Users\ncard\OneDrive - University of Ottawa\University Archive\Year 5\Fall Term\Electronics 3\Project\SEPIC.asc

Direct Newton iteration for .op point succeeded.

Date: Fri Nov 25 00:46:02 2022
Total elapsed time: 40.287 seconds.

tnom = 27
temp = 27
method = modified trap
totiter = 14769941
traniter = 14769919
tranpoints = 4122881
accept = 3071541
rejected = 1051340
matrix size = 41
fillins = 0
solver = Normal
Matrix Compiler1:     118 opcodes  0.4/[0.3]/0.5
Matrix Compiler2:     244 opcodes  0.3/[0.3]/0.5

